<?xml version="1.0" encoding="ISO-8859-1"?>
<febio_spec version="4.0">
	<Module type="solid"/>
	<Control>
		<analysis>DYNAMIC</analysis>
		<time_steps>300</time_steps>
		<step_size>0.1</step_size>
		<plot_zero_state>0</plot_zero_state>
		<plot_range>0,-1</plot_range>
		<plot_level>PLOT_MAJOR_ITRS</plot_level>
		<output_level>OUTPUT_MAJOR_ITRS</output_level>
		<plot_stride>1</plot_stride>
		<output_stride>1</output_stride>
		<adaptor_re_solve>1</adaptor_re_solve>
		<solver type="solid">
			<symmetric_stiffness>symmetric</symmetric_stiffness>
			<equation_scheme>staggered</equation_scheme>
			<equation_order>default</equation_order>
			<optimize_bw>0</optimize_bw>
			<lstol>0.9</lstol>
			<lsmin>0.01</lsmin>
			<lsiter>5</lsiter>
			<ls_check_jacobians>0</ls_check_jacobians>
			<max_refs>15</max_refs>
			<check_zero_diagonal>0</check_zero_diagonal>
			<zero_diagonal_tol>0</zero_diagonal_tol>
			<force_partition>0</force_partition>
			<reform_each_time_step>1</reform_each_time_step>
			<reform_augment>0</reform_augment>
			<diverge_reform>1</diverge_reform>
			<min_residual>1e-20</min_residual>
			<max_residual>0</max_residual>
			<dtol>0.001</dtol>
			<etol>0.01</etol>
			<rtol>0</rtol>
			<rhoi>-2</rhoi>
			<alpha>1</alpha>
			<beta>0.25</beta>
			<gamma>0.5</gamma>
			<logSolve>0</logSolve>
			<arc_length>0</arc_length>
			<arc_length_scale>0</arc_length_scale>
			<qn_method type="BFGS">
				<max_ups>10</max_ups>
				<max_buffer_size>0</max_buffer_size>
				<cycle_buffer>1</cycle_buffer>
				<cmax>100000</cmax>
			</qn_method>
		</solver>
	</Control>
	<Globals>
		<Constants>
			<T>0</T>
			<P>0</P>
			<R>0</R>
			<Fc>0</Fc>
		</Constants>
	</Globals>
	<Material>
		<material id="1" name="Material1" type="trans iso Mooney-Rivlin">
			<density>1</density>
			<k>100</k>
			<pressure_model>default</pressure_model>
			<c1>13.85</c1>
			<c2>0</c2>
			<c3>4.14</c3>
			<c4>61.44</c4>
			<c5>640.7</c5>
			<lam_max>1.03</lam_max>
			<fiber type="vector">
				<vector>0,0,1</vector>
			</fiber>
			<active_contraction>
				<ascl lc="1">1</ascl>
				<Tmax>1</Tmax>
				<ca0>4.35</ca0>
				<camax>0</camax>
				<beta>4.75</beta>
				<l0>1.58</l0>
				<refl>2.04</refl>
			</active_contraction>
		</material>
	</Material>
	<Mesh>
		<Nodes name="biceps_blender.stl">
			<node id="1">7.13321352,14.3139353,-55.3336754</node>
			<node id="2">7.28272867,14.1626997,-55.6205673</node>
			<node id="3">7.25410986,14.1385946,-55.335022</node>
			<node id="4">7.2275815,14.1197834,-55.0414276</node>
			<node id="5">7.10625219,14.2970333,-55.0409203</node>
			<node id="6">7.08016872,14.278244,-54.7444878</node>
			<node id="7">7.20985508,14.1060638,-54.7438087</node>
			<node id="8">7.06555367,14.2608366,-54.4435806</node>
			<node id="9">7.1970458,14.0893908,-54.4437599</node>
			<node id="10">6.94005871,14.4285469,-54.4425278</node>
			<node id="11">7.05081749,14.2436628,-54.1426964</node>
			<node id="12">7.18722057,14.0752335,-54.1433029</node>
			<node id="13">6.9199152,14.4129944,-54.1406097</node>
			<node id="14">7.03629971,14.2263012,-53.8431587</node>
			<node id="15">7.17376041,14.0589046,-53.8439064</node>
			<node id="16">6.90069962,14.3923578,-53.8416977</node>
			<node id="17">7.01869106,14.2078333,-53.5450096</node>
			<node id="18">7.15734339,14.0417624,-53.545723</node>
			<node id="19">6.88180542,14.3725948,-53.5438347</node>
			<node id="20">7.15343714,14.0375004,-53.2470245</node>
<!-- ... 4651 like lines cut -->
		</Nodes>
		<Elements type="tet4" name="Part1">
			<elem id="1">4251,4343,4507,4523</elem>
			<elem id="2">2911,2917,2909,4604</elem>
			<elem id="3">2218,2215,4023,4170</elem>
			<elem id="4">3366,3367,4152,4647</elem>
			<elem id="5">3282,3230,3181,4564</elem>
			<elem id="6">2632,2620,3904,4602</elem>
			<elem id="7">118,133,267,4130</elem>
			<elem id="8">993,953,4158,4610</elem>
			<elem id="9">3891,4146,4426,4519</elem>
			<elem id="10">4397,4211,4545,4665</elem>
			<elem id="11">2721,2716,2722,3905</elem>
			<elem id="12">370,372,391,4640</elem>
			<elem id="13">1314,1305,1306,4629</elem>
			<elem id="14">3906,3991,4042,4136</elem>
			<elem id="15">2351,2356,2497,4643</elem>
			<elem id="16">1709,1698,4336,4365</elem>
			<elem id="17">3877,4056,4390,4527</elem>
			<elem id="18">4164,3877,4473,4515</elem>
			<elem id="19">3139,3145,3144,4080</elem>
			<elem id="20">1596,1597,1609,4498</elem>
<!-- ... 15793 like lines cut -->
		</Elements>
		<Surface name="ZeroDisplacement1">
			<tri3 id="1">2398,2405,2406</tri3>
			<tri3 id="2">2406,2407,2398</tri3>
			<tri3 id="3">2399,2407,2408</tri3>
			<tri3 id="4">2409,2401,2408</tri3>
			<tri3 id="5">2413,2414,2405</tri3>
			<tri3 id="6">2415,2406,2414</tri3>
			<tri3 id="7">2416,2407,2415</tri3>
			<tri3 id="8">2409,2416,2417</tri3>
			<tri3 id="9">2422,2413,2421</tri3>
			<tri3 id="10">2423,2414,2422</tri3>
			<tri3 id="11">2416,2423,2424</tri3>
			<tri3 id="12">2422,2430,2431</tri3>
			<tri3 id="13">2398,2407,2399</tri3>
			<tri3 id="14">2400,2399,2408</tri3>
			<tri3 id="15">2401,2400,2408</tri3>
			<tri3 id="16">2406,2405,2414</tri3>
			<tri3 id="17">2406,2415,2407</tri3>
			<tri3 id="18">2407,2416,2408</tri3>
			<tri3 id="19">2409,2408,2416</tri3>
			<tri3 id="20">2422,2414,2413</tri3>
<!-- ... 6 like lines cut -->
		</Surface>
	</Mesh>
	<MeshDomains>
		<SolidDomain name="Part1" mat="Material1"/>
	</MeshDomains>
	<Boundary>
		<bc name="ZeroDisplacement1" node_set="@surface:ZeroDisplacement1" type="zero displacement">
			<x_dof>1</x_dof>
			<y_dof>1</y_dof>
			<z_dof>1</z_dof>
		</bc>
	</Boundary>
	<LoadData>
		<load_controller id="1" name="LC1" type="math">
			<math>t/20</math>
		</load_controller>
	</LoadData>
	<Output>
		<plotfile type="febio">
			<var type="displacement"/>
			<var type="stress"/>
		</plotfile>
		<logfile>
		<node_data data="uz" file="../../raw_logs/fiber_stiffness_c3/c3_2.0_disp.txt" nodes="1773"/>
		<element_data data="sz" file="../../raw_logs/fiber_stiffness_c3/c3_2.0_stress.txt" elements="12457"/>
		<element_data data="J" file="../../raw_logs/fiber_stiffness_c3/c3_2.0_vol.txt" elements="12457"/>
		</logfile>
	</Output>
</febio_spec>
